Version 4
SHEET 1 2032 680
WIRE 1568 -416 1568 -480
WIRE 1856 -416 1856 -480
WIRE 1568 -304 1568 -336
WIRE 1856 -304 1856 -336
WIRE 448 -208 352 -208
WIRE 448 -176 448 -208
WIRE 352 -16 352 -128
WIRE 352 96 352 64
WIRE 352 96 -224 96
WIRE 352 128 352 96
WIRE 352 128 240 128
WIRE 1088 128 352 128
WIRE -224 240 -224 96
WIRE -144 240 -224 240
WIRE -32 240 -64 240
WIRE 48 240 -32 240
WIRE 240 240 240 208
WIRE 240 240 128 240
WIRE 1088 256 1088 208
WIRE 1232 256 1088 256
WIRE 1280 256 1232 256
WIRE 1408 256 1360 256
WIRE 240 336 240 240
WIRE 1088 336 1088 256
WIRE 1088 352 1088 336
WIRE 1408 352 1408 256
WIRE -224 368 -224 240
WIRE 352 416 240 416
WIRE 1088 416 352 416
WIRE -224 480 -224 448
WIRE 352 480 352 416
WIRE -32 512 -32 240
WIRE 528 512 -32 512
WIRE 640 512 528 512
WIRE 768 512 720 512
WIRE 768 544 768 512
FLAG 352 480 0
FLAG 528 512 S+
FLAG 1232 256 S-
FLAG 1408 352 0
FLAG 768 544 0
FLAG 448 -176 0
FLAG 1568 -304 0
FLAG 1856 -304 0
FLAG 1568 -480 Pressure
FLAG 1856 -480 Temp
FLAG -224 480 0
SYMBOL res 224 112 R0
SYMATTR InstName R1
SYMATTR Value {6200*(1+(T1-25)*0.0023+(P1-1)*0.09)}
SYMBOL res 1072 112 R0
SYMATTR InstName R2
SYMATTR Value {6200*(1+(T1-25)*0.0023+(P1-1)*0.09)}
SYMBOL res 224 320 R0
SYMATTR InstName R3
SYMATTR Value {6200*(1+(T1-25)*0.0023+(P1-1)*0.09)}
SYMBOL res 1072 320 R0
SYMATTR InstName R4
SYMATTR Value {6200*(1+(T1-25)*0.0023+(P1-1)*0.09)}
SYMBOL res -240 352 R0
SYMATTR InstName Rp
SYMATTR Value 184000
SYMBOL res 336 -32 R0
SYMATTR InstName Rs
SYMATTR Value 6200
SYMBOL voltage 352 -112 R180
WINDOW 0 24 96 Left 2
WINDOW 3 24 16 Left 2
WINDOW 123 0 0 Left 0
WINDOW 39 0 0 Left 0
SYMATTR InstName V1
SYMATTR Value 5
SYMBOL voltage 1568 -432 R0
SYMATTR InstName Pressure
SYMBOL voltage 1856 -432 R0
SYMATTR InstName Temperature
SYMBOL res 144 224 R90
WINDOW 0 0 56 VBottom 2
WINDOW 3 32 56 VTop 2
SYMATTR InstName R5
SYMATTR Value 184000
SYMBOL res -48 224 R90
WINDOW 0 0 56 VBottom 2
WINDOW 3 32 56 VTop 2
SYMATTR InstName R6
SYMATTR Value 620
TEXT 0 -184 Left 2 !.step param T1 0 200 40
TEXT 0 -128 Left 2 !.step param P1 0 3 0.1
TEXT 0 -72 Left 2 !.param R0 = 6200
TEXT 0 -16 Left 2 !.op
